@<TRIPOS>MOLECULE
el3093
14 14 0 0 0
SMALL
GASTEIGER

@<TRIPOS>ATOM
     1 N       1.0631    -0.0135     0.1057 N.pl3      1 UNL1 0.0
     2 C       2.3838     0.1066     0.0377 C.ar       1 UNL1 0.0
     3 N       3.0898    -1.0346     0.0121 N.ar       1 UNL1 0.0
     4 C       4.3925    -0.9515    -0.0586 C.ar       1 UNL1 0.0
     5 N       5.1117     0.1587    -0.0685 N.ar       1 UNL1 0.0
     6 C       4.4612     1.3060    -0.0502 C.ar       1 UNL1 0.0
     7 CL      5.4430     2.6972     0.0065 Cl         1 UNL1 0.0
     8 C       3.0574     1.3685    -0.0342 C.ar       1 UNL1 0.0
     9 N       2.3314     2.5919    -0.0946 N.pl3      1 UNL1 0.0
    10 O       1.1541     2.5696     0.2433 O.2        1 UNL1 0.0
    11 O       2.8915     3.5858    -0.4916 O.co2      1 UNL1 0.0
    12 H       0.6768    -0.9419     0.1295 H          1 UNL1 0.0
    13 H       0.4893     0.8177     0.1873 H          1 UNL1 0.0
    14 H       4.9428    -1.8816    -0.0972 H          1 UNL1 0.0
@<TRIPOS>BOND
     1      1      2          1
     2      2      3         ar
     3      3      4         ar
     4      4      5         ar
     5      5      6         ar
     6      6      7          1
     7      6      8         ar
     8      2      8         ar
     9      8      9          1
    10      9     10          2
    11      9     11          1
    12      1     12          1
    13      1     13          1
    14      4     14          1

