@<TRIPOS>MOLECULE
el3666
30 32 0 0 0
SMALL
GASTEIGER

@<TRIPOS>ATOM
     1 O       2.3372    -0.7034     0.9272 O.2        1 UNL1 0.0
     2 N       2.1008    -0.3709    -0.2160 N.pl3      1 UNL1 0.0
     3 O       1.3124     0.4956    -0.5314 O.co2      1 UNL1 0.0
     4 C       2.8084    -1.0501    -1.2699 C.ar       1 UNL1 0.0
     5 C       3.7497    -2.0389    -0.9301 C.ar       1 UNL1 0.0
     6 C       4.4433    -2.6908    -1.9105 C.ar       1 UNL1 0.0
     7 C       4.2181    -2.3701    -3.2648 C.ar       1 UNL1 0.0
     8 N       4.9184    -3.0014    -4.2263 N.ar       1 UNL1 0.0
     9 C       4.7013    -2.6783    -5.4857 C.ar       1 UNL1 0.0
    10 N       5.4172    -3.2505    -6.4606 N.pl3      1 UNL1 0.0
    11 C       6.3419    -4.3374    -6.2240 C.3        1 UNL1 0.0
    12 C       5.9033    -5.5827    -6.9221 C.ar       1 UNL1 0.0
    13 C       4.7401    -6.2951    -6.8587 C.ar       1 UNL1 0.0
    14 C       4.8787    -7.3605    -7.7819 C.ar       1 UNL1 0.0
    15 C       6.1118    -7.2137    -8.3368 C.ar       1 UNL1 0.0
    16 O       6.7361    -6.1374    -7.8288 O.2        1 UNL1 0.0
    17 C       3.7067    -1.6766    -5.7949 C.ar       1 UNL1 0.0
    18 CL      3.4020    -1.2747    -7.4415 Cl         1 UNL1 0.0
    19 N       3.0238    -1.0617    -4.8956 N.ar       1 UNL1 0.0
    20 C       3.2557    -1.3741    -3.5927 C.ar       1 UNL1 0.0
    21 C       2.5516    -0.7148    -2.5817 C.ar       1 UNL1 0.0
    22 H       3.9062    -2.2607     0.1146 H          1 UNL1 0.0
    23 H       5.1732    -3.4499    -1.6789 H          1 UNL1 0.0
    24 H       5.1641    -3.0261    -7.4132 H          1 UNL1 0.0
    25 H       6.3756    -4.4782    -5.1405 H          1 UNL1 0.0
    26 H       7.3373    -4.0647    -6.5889 H          1 UNL1 0.0
    27 H       3.8988    -6.0909    -6.2281 H          1 UNL1 0.0
    28 H       4.1588    -8.1247    -7.9973 H          1 UNL1 0.0
    29 H       6.6418    -7.7867    -9.0707 H          1 UNL1 0.0
    30 H       1.8254     0.0432    -2.8318 H          1 UNL1 0.0
@<TRIPOS>BOND
     1      1      2          2
     2      2      3          1
     3      2      4          1
     4      4      5         ar
     5      5      6         ar
     6      6      7         ar
     7      7      8         ar
     8      8      9         ar
     9      9     10          1
    10     10     11          1
    11     11     12          1
    12     12     13         ar
    13     13     14         ar
    14     14     15         ar
    15     15     16         ar
    16     12     16         ar
    17      9     17         ar
    18     17     18          1
    19     17     19         ar
    20     19     20         ar
    21      7     20         ar
    22     20     21         ar
    23      4     21         ar
    24      5     22          1
    25      6     23          1
    26     10     24          1
    27     11     25          1
    28     11     26          1
    29     13     27          1
    30     14     28          1
    31     15     29          1
    32     21     30          1

