@<TRIPOS>MOLECULE
*****
 77 79 0 0 0
SMALL
GASTEIGER

@<TRIPOS>ATOM
      1 AP1         4.3035    8.0382    0.0229 Unknown     1  UNL1       -1.0000
      2 PD          6.0818    6.6590    0.0599 Pd      1  UNL1        0.0000
      3 C           7.2178    7.8013    1.2275 C.ar    1  UNL1        0.0000
      4 C           7.1682    7.6138    2.6026 C.ar    1  UNL1        0.0000
      5 C           8.0709    8.2525    3.4397 C.ar    1  UNL1        0.0000
      6 C           9.0308    9.1005    2.9036 C.ar    1  UNL1        0.0000
      7 C           9.1170    9.2432    1.5222 C.ar    1  UNL1        0.0000
      8 C           8.2301    8.5916    0.6757 C.ar    1  UNL1        0.0000
      9 C           8.3644    8.7425   -0.8161 C.3     1  UNL1        0.0000
     10 C          10.0252    9.7563    3.8008 C.2     1  UNL1        0.0000
     11 N          10.0498   11.1055    3.8047 N.am    1  UNL1        0.0000
     12 O          10.7866    9.0958    4.5023 O.2     1  UNL1        0.0000
     13 C           9.1568   11.9899    3.0888 C.3     1  UNL1        0.0000
     14 C           9.9847   12.9041    2.1769 C.3     1  UNL1        0.0000
     15 O          10.9515   13.6203    2.9164 O.3     1  UNL1        0.0000
     16 C          11.8245   12.7462    3.6018 C.3     1  UNL1        0.0000
     17 C          11.0536   11.8315    4.5587 C.3     1  UNL1        0.0000
     18 N           5.1819    4.9913   -1.2471 N.4     1  UNL1        1.0000
     19 C           7.6204    4.5509    0.9110 C.2     1  UNL1        0.0000
     20 O           6.5198    4.4955    1.4859 O.2     1  UNL1        0.0000
     21 C           8.7470    3.6053    1.3419 C.3     1  UNL1        0.0000
     22 C           9.3939    4.2093    2.5970 C.3     1  UNL1        0.0000
     23 C           8.1761    2.2040    1.5851 C.3     1  UNL1        0.0000
     24 C          10.2061    5.4582    2.2768 C.3     1  UNL1        0.0000
     25 C           9.2424    1.1284    1.7767 C.3     1  UNL1        0.0000
     26 C           8.6268   -0.2620    1.9247 C.3     1  UNL1        0.0000
     27 C           9.6890   -1.3350    2.1375 C.3     1  UNL1        0.0000
     28 C           4.2024    4.7419   -2.3142 C.3     1  UNL1        0.0000
     29 C           4.3014    3.3312   -2.8384 C.ar    1  UNL1        0.0000
     30 C           3.4717    2.3280   -2.3625 C.ar    1  UNL1        0.0000
     31 C           3.5971    1.0202   -2.8012 C.ar    1  UNL1        0.0000
     32 C           4.5762    0.6941   -3.7327 C.ar    1  UNL1        0.0000
     33 C           5.4188    1.6988   -4.2137 C.ar    1  UNL1        0.0000
     34 C           5.2803    2.9958   -3.7704 C.ar    1  UNL1        0.0000
     35 O           7.8657    5.3547   -0.0295 O.3     1  UNL1        0.0000
     36 O           4.7939   -0.5536   -4.2365 O.3     1  UNL1        0.0000
     37 C           3.9776   -1.6174   -3.7927 C.3     1  UNL1        0.0000
     38 H           6.4358    6.9373    3.0373 H       1  UNL1        0.0000
     39 H           8.0349    8.0967    4.5084 H       1  UNL1        0.0000
     40 H           9.9062    9.8484    1.0966 H       1  UNL1        0.0000
     41 H           7.8551    9.6451   -1.1537 H       1  UNL1        0.0000
     42 H           7.9226    7.8702   -1.3178 H       1  UNL1        0.0000
     43 H           9.4128    8.8149   -1.0969 H       1  UNL1        0.0000
     44 H           8.4387   11.4147    2.5078 H       1  UNL1        0.0000
     45 H           8.6241   12.6088    3.8207 H       1  UNL1        0.0000
     46 H          10.4809   12.3000    1.4026 H       1  UNL1        0.0000
     47 H           9.3513   13.6549    1.7032 H       1  UNL1        0.0000
     48 H          12.3817   12.1310    2.8788 H       1  UNL1        0.0000
     49 H          12.5211   13.3805    4.1511 H       1  UNL1        0.0000
     50 H          11.7204   11.1091    5.0299 H       1  UNL1        0.0000
     51 H          10.5603   12.4354    5.3283 H       1  UNL1        0.0000
     52 H           6.1075    4.7278   -1.6035 H       1  UNL1        0.0000
     53 H           4.9940    4.3545   -0.4642 H       1  UNL1        0.0000
     54 H           9.4886    3.5710    0.5347 H       1  UNL1        0.0000
     55 H           8.6008    4.4563    3.3082 H       1  UNL1        0.0000
     56 H          10.0466    3.4698    3.0654 H       1  UNL1        0.0000
     57 H           7.5193    2.2428    2.4571 H       1  UNL1        0.0000
     58 H           7.5560    1.9303    0.7250 H       1  UNL1        0.0000
     59 H          10.5560    5.9375    3.1887 H       1  UNL1        0.0000
     60 H           9.5996    6.1766    1.7290 H       1  UNL1        0.0000
     61 H          11.0688    5.2044    1.6634 H       1  UNL1        0.0000
     62 H           9.9179    1.1357    0.9170 H       1  UNL1        0.0000
     63 H           9.8356    1.3478    2.6661 H       1  UNL1        0.0000
     64 H           7.9376   -0.2589    2.7726 H       1  UNL1        0.0000
     65 H           8.0467   -0.4965    1.0285 H       1  UNL1        0.0000
     66 H          10.2595   -1.1311    3.0412 H       1  UNL1        0.0000
     67 H          10.3787   -1.3600    1.2962 H       1  UNL1        0.0000
     68 H           9.2284   -2.3155    2.2349 H       1  UNL1        0.0000
     69 H           4.3965    5.4517   -3.1228 H       1  UNL1        0.0000
     70 H           3.2006    4.9191   -1.9151 H       1  UNL1        0.0000
     71 H           2.7060    2.5636   -1.6372 H       1  UNL1        0.0000
     72 H           2.9301    0.2692   -2.4093 H       1  UNL1        0.0000
     73 H           6.1741    1.4328   -4.9367 H       1  UNL1        0.0000
     74 H           5.9397    3.7606   -4.1555 H       1  UNL1        0.0000
     75 H           2.9267   -1.4438   -4.0430 H       1  UNL1        0.0000
     76 H           4.0789   -1.7746   -2.7145 H       1  UNL1        0.0000
     77 H           4.3361   -2.4980   -4.3226 H       1  UNL1        0.0000
@<TRIPOS>BOND
     1    73    33    1
     2    77    37    1
     3    36    37    1
     4    36    32    1
     5    33    34   ar
     6    33    32   ar
     7    74    34    1
     8    75    37    1
     9    37    76    1
    10    34    29   ar
    11    32    31   ar
    12    69    28    1
    13    29    30   ar
    14    29    28    1
    15    31    72    1
    16    31    30   ar
    17    30    71    1
    18    28    70    1
    19    28    18    1
    20    52    18    1
    21    42     9    1
    22    18    53    1
    23    18     2    1
    24    41     9    1
    25    43     9    1
    26     9     8    1
    27    35     2    1
    28    35    19    1
    29     1     2    1
    30     2     3    1
    31    54    21    1
    32     8     3   ar
    33     8     7   ar
    34    58    23    1
    35    19    21    1
    36    19    20    2
    37    62    25    1
    38    65    26    1
    39    40     7    1
    40     3     4   ar
    41    67    27    1
    42    21    23    1
    43    21    22    1
    44    46    14    1
    45     7     6   ar
    46    23    25    1
    47    23    57    1
    48    61    24    1
    49    47    14    1
    50    60    24    1
    51    25    26    1
    52    25    63    1
    53    26    27    1
    54    26    64    1
    55    27    68    1
    56    27    66    1
    57    14    15    1
    58    14    13    1
    59    24    22    1
    60    24    59    1
    61    44    13    1
    62    22    56    1
    63    22    55    1
    64     4    38    1
    65     4     5   ar
    66    48    16    1
    67     6     5   ar
    68     6    10    1
    69    15    16    1
    70    13    11    1
    71    13    45    1
    72     5    39    1
    73    16    49    1
    74    16    17    1
    75    10    11   am
    76    10    12    2
    77    11    17    1
    78    17    50    1
    79    17    51    1
