@<TRIPOS>MOLECULE
*****
 8 7 0 0 0
SMALL
GASTEIGER

@<TRIPOS>ATOM
      1 NI          1.1678   -4.2325   -0.7158 Ni      1  UNL1        0.0000
      2 C          -0.3564   -3.3530   -1.2880 C.3     1  UNL1        0.0000
      3 C           2.4632   -3.0517   -0.2825 C.3     1  UNL1        0.0000
      4 C           1.2112   -5.6965    0.4150 C.3     1  UNL1        0.0000
      5 AP1          1.8007   -5.2705   -2.7262 Unknown      1  UNL1        0.0000
      6 O          -1.2169   -2.8846   -1.8517 O.3     1  UNL1        0.0000
      7 O           1.3354   -6.7000    0.9202 O.3     1  UNL1        0.0000
      8 O           3.3182   -2.3379   -0.0864 O.3     1  UNL1        0.0000
@<TRIPOS>BOND
     1     5     1    1
     2     6     2    1
     3     2     1    1
     4     1     3    1
     5     1     4    1
     6     3     8    1
     7     4     7    1
