@<TRIPOS>MOLECULE
el552
15 15 0 0 0
SMALL
GASTEIGER

@<TRIPOS>ATOM
     1 N      -0.1901    -3.0313    -0.0088 N.1        1 UNL1 0.0
     2 C       0.3598    -2.0278    -0.0065 C.1        1 UNL1 0.0
     3 C       1.0479    -0.7885    -0.0041 C.ar       1 UNL1 0.0
     4 C       2.4395    -0.7753    -0.0081 C.ar       1 UNL1 0.0
     5 C       3.1049     0.4404    -0.0051 C.ar       1 UNL1 0.0
     6 N       4.5541     0.4545    -0.0090 N.pl3      1 UNL1 0.0
     7 O       5.1196    -0.6146    -0.0165 O.2        1 UNL1 0.0
     8 O       5.0970     1.5354    -0.0052 O.co2      1 UNL1 0.0
     9 C       2.4108     1.6465     0.0016 C.ar       1 UNL1 0.0
    10 C       1.0302     1.6362     0.0055 C.ar       1 UNL1 0.0
    11 C       0.3480     0.4260     0.0027 C.ar       1 UNL1 0.0
    12 BR     -1.5452     0.4277     0.0080 Br         1 UNL1 0.0
    13 H       3.0002    -1.6987    -0.0134 H          1 UNL1 0.0
    14 H       2.9640     2.5733     0.0038 H          1 UNL1 0.0
    15 H       0.4742     2.5604     0.0107 H          1 UNL1 0.0
@<TRIPOS>BOND
     1      1      2          3
     2      2      3          1
     3      3      4         ar
     4      4      5         ar
     5      5      6          1
     6      6      7          2
     7      6      8          1
     8      5      9         ar
     9      9     10         ar
    10     10     11         ar
    11      3     11         ar
    12     11     12          1
    13      4     13          1
    14      9     14          1
    15     10     15          1

