@<TRIPOS>MOLECULE
el2394
37 39 0 0 0
SMALL
GASTEIGER

@<TRIPOS>ATOM
     1 O       2.2543     1.1054    -0.3288 O.2        1 UNL1 0.0
     2 N       2.2033    -0.1120    -0.3099 N.pl3      1 UNL1 0.0
     3 O       1.5796    -0.7494     0.5146 O.co2      1 UNL1 0.0
     4 C       2.9338    -0.8065    -1.3178 C.ar       1 UNL1 0.0
     5 C       3.8496    -0.0716    -2.0799 C.ar       1 UNL1 0.0
     6 C       4.5950    -0.6501    -3.0689 C.ar       1 UNL1 0.0
     7 C       4.4619    -2.0230    -3.3682 C.ar       1 UNL1 0.0
     8 N       5.2382    -2.6106    -4.3231 N.pl3      1 UNL1 0.0
     9 C       5.6333    -1.9129    -5.5309 C.3        1 UNL1 0.0
    10 C       4.6617    -2.2744    -6.6687 C.3        1 UNL1 0.0
    11 N       4.6185    -3.7052    -6.8742 N.pl3      1 UNL1 0.0
    12 C       5.4087    -4.2563    -7.8524 C.ar       1 UNL1 0.0
    13 C       5.5086    -5.6413    -8.0673 C.ar       1 UNL1 0.0
    14 C       6.2728    -6.0943    -9.1207 C.ar       1 UNL1 0.0
    15 C       6.9215    -5.1824    -9.9453 C.ar       1 UNL1 0.0
    16 C       6.7579    -3.8405    -9.6591 C.ar       1 UNL1 0.0
    17 N       6.0363    -3.3875    -8.6502 N.ar       1 UNL1 0.0
    18 C       4.2474    -4.4044    -5.6676 C.3        1 UNL1 0.0
    19 C       5.2390    -4.0393    -4.5475 C.3        1 UNL1 0.0
    20 C       3.5414    -2.7543    -2.5991 C.ar       1 UNL1 0.0
    21 C       2.7942    -2.1721    -1.5938 C.ar       1 UNL1 0.0
    22 CL      1.6688    -3.1763    -0.7633 Cl         1 UNL1 0.0
    23 H       3.9598     0.9776    -1.8507 H          1 UNL1 0.0
    24 H       5.3109    -0.0426    -3.5967 H          1 UNL1 0.0
    25 H       6.6434    -2.2304    -5.8064 H          1 UNL1 0.0
    26 H       5.6319    -0.8367    -5.3839 H          1 UNL1 0.0
    27 H       4.9832    -1.8084    -7.5988 H          1 UNL1 0.0
    28 H       3.6550    -1.9330    -6.4050 H          1 UNL1 0.0
    29 H       4.9935    -6.3509    -7.4404 H          1 UNL1 0.0
    30 H       6.3614    -7.1558    -9.3027 H          1 UNL1 0.0
    31 H       7.5250    -5.5067   -10.7769 H          1 UNL1 0.0
    32 H       7.2294    -3.0741   -10.2610 H          1 UNL1 0.0
    33 H       4.2341    -5.4804    -5.8234 H          1 UNL1 0.0
    34 H       3.2402    -4.0816    -5.3807 H          1 UNL1 0.0
    35 H       6.2476    -4.3195    -4.8729 H          1 UNL1 0.0
    36 H       5.0209    -4.5752    -3.6260 H          1 UNL1 0.0
    37 H       3.3657    -3.7989    -2.7891 H          1 UNL1 0.0
@<TRIPOS>BOND
     1      1      2          2
     2      2      3          1
     3      2      4          1
     4      4      5         ar
     5      5      6         ar
     6      6      7         ar
     7      7      8          1
     8      8      9          1
     9      9     10          1
    10     10     11          1
    11     11     12          1
    12     12     13         ar
    13     13     14         ar
    14     14     15         ar
    15     15     16         ar
    16     16     17         ar
    17     12     17         ar
    18     11     18          1
    19     18     19          1
    20      8     19          1
    21      7     20         ar
    22     20     21         ar
    23      4     21         ar
    24     21     22          1
    25      5     23          1
    26      6     24          1
    27      9     25          1
    28      9     26          1
    29     10     27          1
    30     10     28          1
    31     13     29          1
    32     14     30          1
    33     15     31          1
    34     16     32          1
    35     18     33          1
    36     18     34          1
    37     19     35          1
    38     19     36          1
    39     20     37          1

