@<TRIPOS>MOLECULE
el2979
37 39 0 0 0
SMALL
GASTEIGER

@<TRIPOS>ATOM
     1 C       1.2250    -0.0019    -0.4213 C.3        1 UNL1 0.0
     2 O       2.3208     0.2165     0.4370 O.3        1 UNL1 0.0
     3 C       2.8871    -0.8484     1.0510 C.ar       1 UNL1 0.0
     4 C       3.9658    -0.5353     1.9144 C.ar       1 UNL1 0.0
     5 C       4.6187    -1.5109     2.6012 C.ar       1 UNL1 0.0
     6 C       4.2381    -2.8673     2.4687 C.ar       1 UNL1 0.0
     7 N       4.9033    -3.7902     3.1686 N.ar       1 UNL1 0.0
     8 C       4.5695    -5.0589     3.0550 C.ar       1 UNL1 0.0
     9 C       5.3082    -6.0385     3.8274 C.2        1 UNL1 0.0
    10 C       6.2760    -5.6923     4.6913 C.2        1 UNL1 0.0
    11 C       7.0650    -6.5843     5.5111 C.ar       1 UNL1 0.0
    12 C       7.0712    -7.9751     5.3377 C.ar       1 UNL1 0.0
    13 C       7.8400    -8.7842     6.1434 C.ar       1 UNL1 0.0
    14 C       8.6198    -8.2136     7.1455 C.ar       1 UNL1 0.0
    15 N       9.4210    -9.0563     7.9874 N.pl3      1 UNL1 0.0
    16 O       9.3855   -10.2537     7.7872 O.2        1 UNL1 0.0
    17 O      10.0874    -8.5231     8.8513 O.co2      1 UNL1 0.0
    18 C       8.6350    -6.8352     7.3365 C.ar       1 UNL1 0.0
    19 C       7.8673    -6.0345     6.5213 C.ar       1 UNL1 0.0
    20 C       3.5186    -5.4869     2.2059 C.ar       1 UNL1 0.0
    21 C       2.8259    -4.5526     1.4888 C.ar       1 UNL1 0.0
    22 CL      1.5359    -5.0559     0.4504 Cl         1 UNL1 0.0
    23 C       3.1579    -3.1817     1.5908 C.ar       1 UNL1 0.0
    24 C       2.4953    -2.1581     0.8942 C.ar       1 UNL1 0.0
    25 H       0.9322     0.9825    -0.7819 H          1 UNL1 0.0
    26 H       0.3852    -0.4578     0.1122 H          1 UNL1 0.0
    27 H       1.5020    -0.6323    -1.2719 H          1 UNL1 0.0
    28 H       4.2443     0.5029     2.0050 H          1 UNL1 0.0
    29 H       5.4390    -1.2815     3.2620 H          1 UNL1 0.0
    30 H       5.0207    -7.0693     3.6771 H          1 UNL1 0.0
    31 H       6.4775    -4.6352     4.8021 H          1 UNL1 0.0
    32 H       6.4777    -8.4219     4.5563 H          1 UNL1 0.0
    33 H       7.8546    -9.8559     6.0152 H          1 UNL1 0.0
    34 H       9.2514    -6.4197     8.1191 H          1 UNL1 0.0
    35 H       7.8740    -4.9642     6.6620 H          1 UNL1 0.0
    36 H       3.2730    -6.5347     2.1344 H          1 UNL1 0.0
    37 H       1.6814    -2.4313     0.2422 H          1 UNL1 0.0
@<TRIPOS>BOND
     1      1      2          1
     2      2      3          1
     3      3      4         ar
     4      4      5         ar
     5      5      6         ar
     6      6      7         ar
     7      7      8         ar
     8      8      9          1
     9      9     10          2
    10     10     11          1
    11     11     12         ar
    12     12     13         ar
    13     13     14         ar
    14     14     15          1
    15     15     16          2
    16     15     17          1
    17     14     18         ar
    18     18     19         ar
    19     11     19         ar
    20      8     20         ar
    21     20     21         ar
    22     21     22          1
    23     21     23         ar
    24      6     23         ar
    25     23     24         ar
    26      3     24         ar
    27      1     25          1
    28      1     26          1
    29      1     27          1
    30      4     28          1
    31      5     29          1
    32      9     30          1
    33     10     31          1
    34     12     32          1
    35     13     33          1
    36     18     34          1
    37     19     35          1
    38     20     36          1
    39     24     37          1

