@<TRIPOS>MOLECULE
el901
16 16 0 0 0
SMALL
GASTEIGER

@<TRIPOS>ATOM
     1 C       1.0019    -0.1029    -0.0952 C.3        1 UNL1 0.0
     2 C       2.4873    -0.0301    -0.0390 C.ar       1 UNL1 0.0
     3 C       3.1819     1.1824    -0.0347 C.ar       1 UNL1 0.0
     4 C       4.5578     1.1556     0.0545 C.ar       1 UNL1 0.0
     5 C       5.2200    -0.0686     0.1355 C.ar       1 UNL1 0.0
     6 N       6.6559    -0.0613     0.2554 N.pl3      1 UNL1 0.0
     7 O       7.2275     0.9355    -0.1297 O.2        1 UNL1 0.0
     8 O       7.1899    -1.0306     0.7401 O.co2      1 UNL1 0.0
     9 C       4.4397    -1.2285     0.0915 C.ar       1 UNL1 0.0
    10 BR      5.1746    -2.9663     0.0779 Br         1 UNL1 0.0
    11 N       3.1314    -1.1880     0.0081 N.ar       1 UNL1 0.0
    12 H       0.5630     0.8793    -0.2399 H          1 UNL1 0.0
    13 H       0.6256    -0.5340     0.8312 H          1 UNL1 0.0
    14 H       0.6991    -0.7666    -0.9021 H          1 UNL1 0.0
    15 H       2.6518     2.1191    -0.0915 H          1 UNL1 0.0
    16 H       5.1472     2.0610     0.0729 H          1 UNL1 0.0
@<TRIPOS>BOND
     1      1      2          1
     2      2      3         ar
     3      3      4         ar
     4      4      5         ar
     5      5      6          1
     6      6      7          2
     7      6      8          1
     8      5      9         ar
     9      9     10          1
    10      9     11         ar
    11      2     11         ar
    12      1     12          1
    13      1     13          1
    14      1     14          1
    15      3     15          1
    16      4     16          1

