@<TRIPOS>MOLECULE
el1763
16 16 0 0 0
SMALL
GASTEIGER

@<TRIPOS>ATOM
     1 C      -3.4758    -0.0432     0.0767 C.3        1 UNL1 0.0
     2 C      -1.9852     0.0096     0.0233 C.ar       1 UNL1 0.0
     3 C      -1.2018    -1.1395    -0.0660 C.ar       1 UNL1 0.0
     4 N       0.1162    -1.1304    -0.0981 N.ar       1 UNL1 0.0
     5 C       0.7664     0.0146    -0.0736 C.ar       1 UNL1 0.0
     6 CL      2.4717    -0.0890    -0.0571 Cl         1 UNL1 0.0
     7 C       0.0851     1.2396    -0.0208 C.ar       1 UNL1 0.0
     8 N       0.7437     2.5270    -0.0186 N.pl3      1 UNL1 0.0
     9 O       1.8256     2.6174    -0.5458 O.2        1 UNL1 0.0
    10 O       0.1421     3.4375     0.5089 O.co2      1 UNL1 0.0
    11 C      -1.3029     1.2195     0.0427 C.ar       1 UNL1 0.0
    12 H      -3.8230    -1.0660     0.1906 H          1 UNL1 0.0
    13 H      -3.8973     0.3674    -0.8400 H          1 UNL1 0.0
    14 H      -3.8467     0.5532     0.9079 H          1 UNL1 0.0
    15 H      -1.6529    -2.1217    -0.1085 H          1 UNL1 0.0
    16 H      -1.8315     2.1609     0.0994 H          1 UNL1 0.0
@<TRIPOS>BOND
     1      1      2          1
     2      2      3         ar
     3      3      4         ar
     4      4      5         ar
     5      5      6          1
     6      5      7         ar
     7      7      8          1
     8      8      9          2
     9      8     10          1
    10      7     11         ar
    11      2     11         ar
    12      1     12          1
    13      1     13          1
    14      1     14          1
    15      3     15          1
    16     11     16          1

